test/data/inv25pi.raw
@!IC, SBASE,REV,XFRRAT,NXFRAT,BASFRQ
0,   100.00, 34,     1,     1, 50.00     / PSS(R)E-34.9    FRI, NOV 07 2025  15:46
PICO H�BIL DEL INVIERNO 25 DEMANDA SADI 28100 MW

GENERAL, THRSHZ=0.0001, PQBRAK=0.7, BLOWUP=5.0
GAUSS, ITMX=100, ACCP=1.6, ACCQ=1.6, ACCM=1.0, TOL=0.0001
NEWTON, ITMXN=60, ACCN=1.0, TOLN=0.1, VCTOLQ=0.1, VCTOLV=0.00001, DVLIM=0.99, NDVFCT=0.99
ADJUST, ADJTHR=0.005, ACCTAP=1.0, TAPLIM=0.05, SWVBND=100.0, MXTPSS=99, MXSWIM=10
TYSL, ITMXTY=20, ACCTY=1.0, TOLTY=0.00001
SOLVER, FNSL, ACTAPS=1, AREAIN=0, PHSHFT=0, DCTAPS=0, SWSHNT=1, FLATST=0, VARLIM=0, NONDIV=0
RATING, 1, "RATE1 ", "RATING SET 1                    "
RATING, 2, "RATE2 ", "RATING SET 2                    "
RATING, 3, "RATE3 ", "RATING SET 3                    "
RATING, 4, "RATE4 ", "RATING SET 4                    "
RATING, 5, "RATE5 ", "RATING SET 5                    "
RATING, 6, "RATE6 ", "RATING SET 6                    "
RATING, 7, "RATE7 ", "RATING SET 7                    "
RATING, 8, "RATE8 ", "RATING SET 8                    "
RATING, 9, "RATE9 ", "RATING SET 9                    "
RATING,10, "RATE10", "RATING SET 10                   "
RATING,11, "RATE11", "RATING SET 11                   "
RATING,12, "RATE12", "RATING SET 12                   "
0 / END OF SYSTEM-WIDE DATA, BEGIN BUS DATA
@!   I,'NAME        ', BASKV, IDE,AREA,ZONE,OWNER, VM,        VA,    NVHI,   NVLO,   EVHI,   EVLO
    10,'NPMADRYN    ', 500.0000,1,  21,  51,  10,1.01895,  23.0574,1.10000,0.90000,1.10000,0.90000
    11,'NPMD.CHL    ', 500.0000,1,  21,  51,  10,0.97918,  29.3155,1.10000,0.90000,1.10000,0.90000
    12,'SCN_500     ', 500.0000,1,  21,  52,  10,1.01775,  24.8307,1.10000,0.90000,1.10000,0.90000
    15,'RSCRUZ      ', 500.0000,1,  21,  52,  10,1.01856,  23.5430,1.10000,0.90000,1.10000,0.90000
    19,'ESPERANZ    ', 500.0000,1,  21,  52,  10,1.01543,  23.0437,1.10000,0.90000,1.10000,0.90000
    20,'GARACCB1    ', 525.0000,4,  20,  49,  10,1.00000,   0.0000,1.10000,0.90000,1.10000,0.90000
    22,'GARACCB2    ', 525.0000,4,  20,  49,  10,1.00000,   0.0000,1.10000,0.90000,1.10000,0.90000
    30,'ITA         ', 525.0000,4,  20,  49,  10,1.00000,   0.0000,1.10000,0.90000,1.10000,0.90000
    85,'INV B1  2345', 500.0000,1,  20,  50,  10,1.05086,  22.6253,1.10000,0.90000,1.10000,0.90000
    86,'IBT F1  2345', 345.0000,1,  20,  50,  10,1.04196,   0.1234,1.10000,0.90000,1.10000,0.90000
    87,'INF B1      ', 345.0000,3,  20,  50,  10,1.04000,   0.0000,1.10000,0.90000,1.10000,0.90000
   100,'FUTAL330    ', 330.0000,1,  21,  51,  10,1.01846,  39.5758,1.10000,0.90000,1.10000,0.90000
   102,'FUTAHI01    ',  13.8000,2,  21,  51,   6,1.00000,  43.8763,1.10000,0.90000,1.10000,0.90000
   104,'FUTAHI02    ',  13.8000,2,  21,  51,   6,1.00000,  43.8763,1.10000,0.90000,1.10000,0.90000
   106,'FUTAHI03    ',  13.8000,2,  21,  51,   6,1.00000,  43.8763,1.10000,0.90000,1.10000,0.90000
   108,'FUTAHI04    ',  13.8000,2,  21,  51,   6,1.01846,  39.5758,1.10000,0.90000,1.10000,0.90000
   115,'R.TURBIO    ', 220.0000,1,  21,  52,   1,1.02207,  21.0290,1.10000,0.90000,1.10000,0.90000
   117,'ESPERANZ    ', 220.0000,1,  21,  52,   1,1.01529,  21.6276,1.10000,0.90000,1.10000,0.90000
   118,'RGALLEGO    ', 220.0000,1,  21,  52,   1,1.01527,  20.1596,1.10000,0.90000,1.10000,0.90000
   190,'ALTG09CC    ',  10.5000,2,  16,  53,   8,1.03351,  29.0521,1.10000,0.90000,1.10000,0.90000
   191,'ALTG10CC    ',  10.5000,2,  16,  53,   8,1.03351,  29.0521,1.10000,0.90000,1.10000,0.90000
   192,'ALTV11CC    ',  10.5000,2,  16,  53,   8,1.03423,  28.6375,1.10000,0.90000,1.10000,0.90000
   193,'SERIE DT    ', 132.0000,1,  16,  53,   2,1.00000,  22.9134,1.10000,0.90000,1.10000,0.90000
   200,'PMADR330    ', 330.0000,1,  21,  51,   1,1.00571,  24.5231,1.10000,0.90000,1.10000,0.90000
   201,'AL-FIAT1    ',  13.2000,4,  16,  53,   4,1.00000,   0.0000,1.10000,0.90000,1.10000,0.90000
   202,'AL-FIAT2    ',  13.2000,4,  16,  53,   4,1.00000,   0.0000,1.10000,0.90000,1.10000,0.90000
   203,'AL-FIAT3    ',  13.2000,4,  16,  53,   4,1.00000,   0.0000,1.10000,0.90000,1.10000,0.90000
   204,'AL-FIAT4    ',  13.2000,4,  16,  53,   4,1.00000,   0.0000,1.10000,0.90000,1.10000,0.90000
   205,'ALUATG05    ',  11.0000,4,  16,  53,   4,1.00000,   0.0000,1.10000,0.90000,1.10000,0.90000
   206,'ALUATG06    ',  11.0000,4,  16,  53,   4,1.00000,   0.0000,1.10000,0.90000,1.10000,0.90000
   207,'ALUATG07    ',  11.0000,2,  16,  53,   8,1.02172,  17.1334,1.10000,0.90000,1.10000,0.90000
   208,'ALUATG08    ',  11.0000,2,  16,  53,   8,1.02172,  17.1334,1.10000,0.90000,1.10000,0.90000
   209,'ALUATV01    ',  11.0000,2,  16,  53,   8,1.02172,  17.1334,1.10000,0.90000,1.10000,0.90000
   210,'APPA330A    ', 330.0000,1,  16,  53,   2,1.00488,  24.4470,1.10000,0.90000,1.10000,0.90000
   211,'APPA330B    ', 330.0000,1,  16,  53,   2,1.00488,  24.4600,1.10000,0.90000,1.10000,0.90000
   212,'AL-CE0A2    ',  33.0000,1,  16,  53,   2,1.02172,  17.1334,1.10000,0.90000,1.10000,0.90000
   213,'APPA330C    ', 330.0000,1,  16,  53,   2,1.00532,  24.4573,1.10000,0.90000,1.10000,0.90000
   214,'AL-CE0B     ',  33.0000,4,  16,  53,   2,1.00000,   0.0000,1.10000,0.90000,1.10000,0.90000
   215,'LA FLECHA   ', 132.0000,4,  16,  53,  10,1.00000,   0.0000,1.10000,0.90000,1.10000,0.90000
   216,'AL-CE0A4    ',  33.0000,1,  16,  53,   2,1.02172,  17.1334,1.10000,0.90000,1.10000,0.90000
   217,'AL-CE0A5    ',  33.0000,1,  16,  53,   2,1.02172,  17.1334,1.10000,0.90000,1.10000,0.90000
   218,'AL-CE0A3    ',  33.0000,1,  16,  53,   2,1.02172,  17.1334,1.10000,0.90000,1.10000,0.90000
   219,'AEG         ',  13.2000,2,  16,  53,   4,1.02172,  17.1334,1.10000,0.90000,1.10000,0.90000
   220,'PMADRYN1    ', 132.0000,1,  21,  51,   1,1.03776,  24.9210,1.10000,0.90000,1.10000,0.90000
   221,'PMADRYN2    ', 132.0000,1,  21,  51,  10,1.01125,  25.5996,1.10000,0.90000,1.10000,0.90000
   222,'AL-CE0A1    ',  33.0000,1,  16,  53,   2,1.00158,  23.0816,1.10000,0.90000,1.10000,0.90000
   223,'LB ESTE     ', 132.0000,1,  21,  51,  10,1.01738,  28.1354,1.10000,0.90000,1.10000,0.90000
   224,'NPMAD330    ', 330.0000,1,  21,  51,  10,1.00581,  24.5143,1.10000,0.90000,1.10000,0.90000
   226,'LB OESTE    ', 132.0000,1,  21,  51,  10,1.02620,  27.5399,1.10000,0.90000,1.10000,0.90000
   227,'SERV AUX    ',  33.0000,1,  16,  53,   2,1.02172,  17.1334,1.10000,0.90000,1.10000,0.90000
   230,'DGPAL132    ', 132.0000,1,  21,  51,  10,1.03447,  24.9216,1.10000,0.90000,1.10000,0.90000
   240,'TRELW132    ', 132.0000,1,  21,  51,  10,1.02363,  27.2659,1.10000,0.90000,1.10000,0.90000
   242,'TREW13.2    ',  13.2000,2,  21,  51,   1,0.99472,  23.9738,1.10000,0.90000,1.10000,0.90000
   243,'RAWSON      ', 132.0000,1,  21,  51,   1,1.02888,  28.0113,1.10000,0.90000,1.10000,0.90000
   244,'TRELEW33    ',  33.0000,1,  21,  51,   1,0.99426,  24.6379,1.10000,0.90000,1.10000,0.90000
   246,'PE_PMADR    ', 132.0000,1,  21,  51,  10,1.01114,  26.4297,1.10000,0.90000,1.10000,0.90000
   250,'AMEGH132    ', 132.0000,1,  21,  51,   1,1.04354,  30.7912,1.10000,0.90000,1.10000,0.90000
   251,'AMEGHI01    ',  13.2000,2,  21,  51,   6,1.04000,  32.6393,1.10000,0.90000,1.10000,0.90000
   252,'AMEGHI02    ',  13.2000,4,  21,  51,   6,1.00000,   0.0000,1.10000,0.90000,1.10000,0.90000
   253,'PE_ALUAR    ', 132.0000,1,  16,  53,  10,1.00318,  24.1459,1.10000,0.90000,1.10000,0.90000
   254,'ALUA33_01   ',  33.0000,1,  16,  53,  10,0.99906,  27.3320,1.10000,0.90000,1.10000,0.90000
   255,'ALUAR33_03  ',  33.0000,1,  16,  53,  10,0.99867,  27.4564,1.10000,0.90000,1.10000,0.90000
   256,'ALUAR33_07  ',  33.0000,1,  16,  53,  10,1.00234,  27.5767,1.10000,0.90000,1.10000,0.90000
   257,'ALUAR33_09  ',  33.0000,1,  16,  53,  10,1.00276,  27.8209,1.10000,0.90000,1.10000,0.90000
   258,'PER-132     ', 132.0000,1,  21,  51,   1,1.03172,  28.4569,1.10000,0.90000,1.10000,0.90000
   259,'AL-CEB      ', 132.0000,1,  16,  53,   2,1.00000,  22.9134,1.10000,0.90000,1.10000,0.90000
   261,'AL-CEA      ', 132.0000,1,  16,  53,   2,1.00000,  22.9134,1.10000,0.90000,1.10000,0.90000
   264,'FUTAL132    ', 132.0000,1,  21,  51,  10,1.03019,  38.6230,1.10000,0.90000,1.10000,0.90000
   265,'AL-CEB0C    ',  33.0000,1,  16,  53,   2,1.00054,  23.0799,1.10000,0.90000,1.10000,0.90000
   266,'ESQUE132    ', 132.0000,1,  21,  51,  10,1.02364,  38.2956,1.10000,0.90000,1.10000,0.90000
   268,'SERIE AT    ', 132.0000,1,  16,  53,   2,1.00000,  22.9134,1.10000,0.90000,1.10000,0.90000
   269,'SERIE BT    ', 132.0000,1,  16,  53,   2,1.00000,  22.9134,1.10000,0.90000,1.10000,0.90000
   271,'ELCOIHUE    ', 132.0000,1,  21,  51,   1,1.00453,  38.4239,1.10000,0.90000,1.10000,0.90000
   272,'CHUBUNOR2   ', 132.0000,1,  21,  51,  10,1.01183,  26.3256,1.10000,0.90000,1.10000,0.90000
   273,'PMADRYN2    ', 132.0000,1,  21,  51,  10,1.01125,  25.5996,1.10000,0.90000,1.10000,0.90000
   275,'LB          ', 132.0000,1,  21,  51,  10,1.01331,  28.4248,1.10000,0.90000,1.10000,0.90000
   280,'GOLONDRI    ',  13.2000,1,  21,  51,  10,0.93870,  40.5866,1.10000,0.90000,1.10000,0.90000
   281,'LIMRN-CH    ',  13.2000,1,  21,  51,  10,0.90697,  41.1001,1.10000,0.90000,1.10000,0.90000
   282,'ELBOLSON    ',  13.2000,1,  21,  51,   1,0.88336,  41.5070,1.10000,0.90000,1.10000,0.90000
   300,'SGRAN132    ', 132.0000,1,   7,  26,   1,1.04157,  22.2917,1.10000,0.90000,1.10000,0.90000
   304,'SGRA13.2    ',  13.2000,4,   7,  26,   4,1.00000,   0.0000,1.10000,0.90000,1.10000,0.90000
   310,'PCOLO132    ', 132.0000,1,   7,  26,  10,1.04177,  22.2589,1.10000,0.90000,1.10000,0.90000
   311,'MALASPINA   ', 132.0000,1,  21,  51,  10,1.03446,  33.7338,1.10000,0.90000,1.10000,0.90000
   315,'RSCRUZ      ', 132.0000,1,  21,  52,   1,1.03204,  23.2450,1.10000,0.90000,1.10000,0.90000
   316,'S.JULIAN    ', 132.0000,4,  21,  52,   1,1.00000,   0.0000,1.10000,0.90000,1.10000,0.90000
   317,'M.ESPEJO    ', 132.0000,4,  21,  52,   1,1.00000,   0.0000,1.10000,0.90000,1.10000,0.90000
   318,'GREGORES    ', 132.0000,4,  21,  52,   1,1.00000,   0.0000,1.10000,0.90000,1.10000,0.90000
   320,'SANOE132    ', 132.0000,1,   7,  26,   1,1.03847,  20.9577,1.10000,0.90000,1.10000,0.90000
   322,'SANES132    ', 132.0000,1,   7,  26,   1,1.03825,  20.8935,1.10000,0.90000,1.10000,0.90000
   330,'VIEDM132    ', 132.0000,1,   7,  26,   1,0.98493,  11.6544,1.10000,0.90000,1.10000,0.90000
   332,'VIED13.2    ',  13.2000,1,   7,  26,   1,0.98795,   7.7646,1.10000,0.90000,1.10000,0.90000
   334,'VIEDMA33    ',  33.0000,1,   7,  26,  10,0.99550,   9.1365,1.10000,0.90000,1.10000,0.90000
   400,'C.RIV.A1    ', 132.0000,1,  21,  51,  10,1.01277,  30.7348,1.10000,0.90000,1.10000,0.90000
   401,'C.RIV.A     ', 132.0000,1,  21,  51,  10,1.01269,  30.7290,1.10000,0.90000,1.10000,0.90000
   402,'GARAYALDE   ', 132.0000,1,  21,  51,  10,1.04503,  33.1997,1.10000,0.90000,1.10000,0.90000
   403,'HERCULES    ', 132.0000,1,  21,  52,  10,1.01836,  30.2320,1.10000,0.90000,1.10000,0.90000
   404,'ESCALANT    ', 132.0000,1,  21,  51,  10,1.00197,  31.6857,1.10000,0.90000,1.10000,0.90000
   405,'PE_MBEHR    ', 132.0000,1,  21,  51,  10,1.00717,  33.2193,1.10000,0.90000,1.10000,0.90000
   406,'CRIVTG26    ',  13.2000,2,  21,  51,   4,1.01269,  30.7290,1.10000,0.90000,1.10000,0.90000
   407,'GARA33_01   ',  33.0000,1,  21,  51,  10,1.03857,  35.4260,1.10000,0.90000,1.10000,0.90000
   408,'C.RIV.A1    ',  10.4000,1,  21,  51,   1,0.99922,  28.5827,1.10000,0.90000,1.10000,0.90000
   409,'CRIVTG21    ',  10.4000,2,  21,  51,   4,0.99922,  28.5827,1.10000,0.90000,1.10000,0.90000
   410,'C.RIV.A1    ',  66.0000,2,  21,  51,   1,1.00572,  31.4758,1.10000,0.90000,1.10000,0.90000
   411,'ESCALANT2   ', 132.0000,1,  21,  51,   1,1.00197,  31.6857,1.10000,0.90000,1.10000,0.90000
   412,'CT_MBEHR2   ', 132.0000,1,  21,  51,  10,1.00638,  33.2702,1.10000,0.90000,1.10000,0.90000
   413,'BICE33_02   ',  33.0000,1,  21,  52,  10,1.01274,  38.5760,1.10000,0.90000,1.10000,0.90000
   415,'GARA13_01   ',  13.2000,1,  21,  51,  10,1.03863,  35.5885,1.10000,0.90000,1.10000,0.90000
   416,'SEBER1      ',  66.0000,1,  21,  51,   1,1.01428,  33.4293,1.10000,0.90000,1.10000,0.90000
   417,'SEBER1_35   ',  35.0000,1,  21,  51,  10,0.99144,  36.3593,1.10000,0.90000,1.10000,0.90000
   418,'SEBER2      ',  35.0000,1,  21,  51,   1,0.99462,  36.9579,1.10000,0.90000,1.10000,0.90000
   420,'C.RIV.A1    ',  33.0000,2,  21,  51,   1,0.99892,  28.5370,1.10000,0.90000,1.10000,0.90000
   422,'CRIVTG23    ',  13.8000,2,  21,  51,   4,0.99513,  27.8181,1.10000,0.90000,1.10000,0.90000
   423,'MB_ALL_35   ',  35.0000,1,  21,  51,  10,0.99462,  36.9579,1.10000,0.90000,1.10000,0.90000
   424,'MB_JEN_35   ',  35.0000,1,  21,  51,  10,0.99462,  36.9579,1.10000,0.90000,1.10000,0.90000
   437,'CRIVTG78    ',  13.8000,2,  21,  51,   8,1.01269,  30.7290,1.10000,0.90000,1.10000,0.90000
   438,'CRIVTV25    ',  13.8000,2,  21,  51,   8,1.01269,  30.7290,1.10000,0.90000,1.10000,0.90000
   440,'VHERM132    ', 132.0000,2,  21,  51,   1,0.98370,  30.4248,1.10000,0.90000,1.10000,0.90000
   441,'SAN JOSE    ', 132.0000,1,  21,  52,   1,0.98003,  28.0416,1.10000,0.90000,1.10000,0.90000
   442,'CNEGR132    ', 132.0000,2,  21,  51,   1,0.97446,  29.9593,1.10000,0.90000,1.10000,0.90000
   444,'PAMCA132    ', 132.0000,2,  21,  51,   1,0.99560,  31.1102,1.10000,0.90000,1.10000,0.90000
   445,'TORDI132    ', 132.0000,2,  21,  51,   1,0.99505,  31.0785,1.10000,0.90000,1.10000,0.90000
   446,'LPER1132    ', 132.0000,1,  21,  52,   1,1.03070,  33.4077,1.10000,0.90000,1.10000,0.90000
   447,'LPER2132    ', 132.0000,4,  21,  52,   1,1.00000,   0.0000,1.10000,0.90000,1.10000,0.90000
   448,'LASHE132    ', 132.0000,2,  21,  52,   1,0.99948,  30.2246,1.10000,0.90000,1.10000,0.90000
   449,'DIADEMA     ', 132.0000,1,  21,  51,   1,1.00830,  31.5993,1.10000,0.90000,1.10000,0.90000
   450,'BSM132R     ', 132.0000,2,  21,  51,   1,1.00933,  30.6825,1.10000,0.90000,1.10000,0.90000
   451,'DIAD33_01   ',  33.0000,1,  21,  51,  10,0.98071,  34.3371,1.10000,0.90000,1.10000,0.90000
   453,'DIADEO01    ',   0.4000,2,  21,  51,  11,1.03000,  35.5580,1.10000,0.90000,1.10000,0.90000
   454,'C.OLIVIA    ', 132.0000,1,  21,  52,   1,1.02158,  29.6839,1.10000,0.90000,1.10000,0.90000
   455,'AIKE        ', 132.0000,1,  21,  52,   1,0.98588,  28.5904,1.10000,0.90000,1.10000,0.90000
   456,'ABASOLO     ', 132.0000,1,  21,  51,   1,1.01387,  30.9707,1.10000,0.90000,1.10000,0.90000
   457,'OROPLATA    ', 132.0000,1,  21,  52,   1,0.97384,  27.2966,1.10000,0.90000,1.10000,0.90000
   458,'C.LEON      ', 132.0000,1,  21,  52,  10,1.02747,  30.0320,1.10000,0.90000,1.10000,0.90000
   459,'PT1-132R    ', 132.0000,2,  21,  52,   1,1.03466,  27.3465,1.10000,0.90000,1.10000,0.90000
   460,'PT1-132M    ', 132.0000,1,  21,  52,   1,1.03466,  27.3465,1.10000,0.90000,1.10000,0.90000
   461,'SCN_132     ', 132.0000,1,  21,  52,  10,1.03606,  27.2692,1.10000,0.90000,1.10000,0.90000
   462,'PTRUN235    ',  35.0000,1,  21,  52,   1,1.01221,  27.3304,1.10000,0.90000,1.10000,0.90000
   463,'PTRUN35R    ',  35.0000,2,  21,  52,   1,1.01221,  27.3304,1.10000,0.90000,1.10000,0.90000
   464,'PTR1TG24    ',  13.8000,2,  21,  52,   4,0.97270,  27.3300,1.10000,0.90000,1.10000,0.90000
   466,'PTR1TG25    ',  10.5000,2,  21,  52,   4,0.97227,  27.3296,1.10000,0.90000,1.10000,0.90000
   467,'PCR         ', 132.0000,1,  21,  52,   1,1.03442,  27.4510,1.10000,0.90000,1.10000,0.90000
   468,'PTR1TG23    ',  10.5000,2,  21,  52,   4,1.01221,  27.3304,1.10000,0.90000,1.10000,0.90000
   470,'PT2--132    ', 132.0000,1,  21,  52,  10,1.03477,  27.3443,1.10000,0.90000,1.10000,0.90000
   472,'PT2-6.9     ',  35.0000,1,  21,  52,   1,1.03477,  27.3443,1.10000,0.90000,1.10000,0.90000
   474,'ELCORDON    ',  35.0000,1,  21,  52,   1,1.03010,  30.5596,1.10000,0.90000,1.10000,0.90000
   475,'HUEMUL      ',  35.0000,4,  21,  52,   1,1.00000,   0.0000,1.10000,0.90000,1.10000,0.90000
   476,'HUEMDI01    ',   0.4000,4,  21,  52,   1,1.00000,   0.0000,1.10000,0.90000,1.10000,0.90000
   477,'MESESPI     ',  35.0000,1,  21,  52,   1,1.03490,  33.1246,1.10000,0.90000,1.10000,0.90000
   478,'MESEDI01    ',   0.4000,2,  21,  52,   4,1.00000,  39.2859,1.10000,0.90000,1.10000,0.90000
   479,'SCN_TER1    ',  33.0000,1,  21,  52,  10,1.03999,  27.0514,1.10000,0.90000,1.10000,0.90000
   480,'PDES132M    ', 132.0000,1,  21,  52,   1,1.02722,  34.2832,1.10000,0.90000,1.10000,0.90000
   481,'PDES132R    ', 132.0000,4,  21,  52,   1,1.00000,   0.0000,1.10000,0.90000,1.10000,0.90000
   482,'C.MORO      ', 132.0000,4,  21,  52,   1,1.00000,   0.0000,1.10000,0.90000,1.10000,0.90000
   483,'PS.A.BIEDMA ', 132.0000,1,  21,  52,   1,1.03083,  34.5666,1.10000,0.90000,1.10000,0.90000
   484,'SCN_TER2    ',  33.0000,1,  21,  52,  10,1.03935,  27.0868,1.10000,0.90000,1.10000,0.90000
   490,'CTPAT132    ', 132.0000,1,  21,  51,  10,1.01679,  31.1755,1.10000,0.90000,1.10000,0.90000
   491,'PATATG01    ',  11.5000,2,  21,  51,   8,1.05000,  34.7940,1.10000,0.90000,1.10000,0.90000
   492,'PATATG02    ',  11.5000,2,  21,  51,   8,1.05000,  34.7940,1.10000,0.90000,1.10000,0.90000
   493,'PATATV01    ',  11.5000,2,  21,  51,   8,1.05000,  33.0928,1.10000,0.90000,1.10000,0.90000
   494,'CHUBUNOR    ', 132.0000,1,  21,  51,  10,1.03519,  25.7252,1.10000,0.90000,1.10000,0.90000
   495,'PEBICENT    ', 132.0000,1,  21,  52,  10,1.03166,  35.0028,1.10000,0.90000,1.10000,0.90000
   500,'HERC33_01   ',  33.0000,1,  21,  52,  10,1.00881,  32.8974,1.10000,0.90000,1.10000,0.90000
   501,'PM33_01     ',  33.0000,1,  21,  51,  10,1.00347,  24.6660,1.10000,0.90000,1.10000,0.90000
   504,'RSCRUZ      ',  33.0000,1,  21,  52,   1,1.03185,  23.2131,1.10000,0.90000,1.10000,0.90000
   508,'LBVI33_02   ',  33.0000,1,  21,  51,  10,0.99005,  30.1881,1.10000,0.90000,1.10000,0.90000
   510,'PM33_02     ',  33.0000,1,  21,  51,  10,1.03501,  24.8721,1.10000,0.90000,1.10000,0.90000
   511,'PM33_01     ',  33.0000,1,  21,  51,  10,1.03603,  24.9430,1.10000,0.90000,1.10000,0.90000
   512,'C.LEON33_01 ',  33.0000,1,  21,  52,  10,1.01076,  32.5029,1.10000,0.90000,1.10000,0.90000
   513,'C.LEON33_02 ',  33.0000,1,  21,  52,  10,1.01206,  33.0406,1.10000,0.90000,1.10000,0.90000
   514,'CRITER10    ',  13.2000,1,  21,  51,  10,1.00463,  31.5939,1.10000,0.90000,1.10000,0.90000
   515,'CRITER11    ',  13.2000,1,  21,  52,  10,1.00499,  31.5550,1.10000,0.90000,1.10000,0.90000
   516,'ESQ1.TER    ',  13.2000,1,  21,  51,  10,0.99905,  34.4107,1.10000,0.90000,1.10000,0.90000
   517,'BICE33_01   ',  33.0000,1,  21,  52,  10,1.01014,  38.3811,1.10000,0.90000,1.10000,0.90000
   518,'FUTA33_01   ',  33.0000,4,  21,  51,  10,1.00000,   0.0000,1.10000,0.90000,1.10000,0.90000
   519,'KOST33_01   ',  33.0000,1,  21,  51,  10,0.97380,  33.5961,1.10000,0.90000,1.10000,0.90000
   520,'ESQUEL33    ',  33.0000,1,  21,  51,   1,0.99976,  34.5364,1.10000,0.90000,1.10000,0.90000
   521,'BICE33_03   ',  33.0000,1,  21,  52,  10,1.01361,  38.5901,1.10000,0.90000,1.10000,0.90000
   522,'ELCOIHUE    ',  33.0000,1,  21,  51,   1,0.94162,  37.5012,1.10000,0.90000,1.10000,0.90000
   523,'RTURTV01    ',  11.0000,4,  21,  52,   5,1.00000,   0.0000,1.10000,0.90000,1.10000,0.90000
   524,'GOLONDRI    ',  33.0000,1,  21,  51,   1,0.94383,  40.9240,1.10000,0.90000,1.10000,0.90000
   525,'RTURTV02    ',  11.0000,4,  21,  52,   5,1.00000,   0.0000,1.10000,0.90000,1.10000,0.90000
   526,'CHNO33_01   ',  33.0000,1,  21,  51,  10,1.01805,  27.9534,1.10000,0.90000,1.10000,0.90000
   527,'ELBOLSON    ',  33.0000,1,  21,  51,  10,0.98073,  42.8271,1.10000,0.90000,1.10000,0.90000
   528,'R.ESCONDIDO ',  33.0000,1,  21,  51,  10,1.01607,  46.0946,1.10000,0.90000,1.10000,0.90000
   532,'LBVI33_03   ',  33.0000,1,  21,  51,  10,0.99260,  30.2966,1.10000,0.90000,1.10000,0.90000
   533,'PEM33_01    ',  33.0000,1,  21,  51,  10,0.99989,  29.2649,1.10000,0.90000,1.10000,0.90000
   534,'PEM33_02    ',  33.0000,1,  21,  51,  10,1.00379,  29.5844,1.10000,0.90000,1.10000,0.90000
   535,'CTMB36_01   ',  36.7000,1,  21,  51,   1,0.98407,  31.9985,1.10000,0.90000,1.10000,0.90000
   536,'MBE2DI01    ',  11.0000,2,  21,  51,  10,1.00000,  33.4981,1.10000,0.90000,1.10000,0.90000
   537,'COIHU6_01   ',   6.6000,1,  21,  51,  10,0.94163,  37.5013,1.10000,0.90000,1.10000,0.90000
   538,'LGO-EBL     ',  33.0000,1,  21,  51,  10,0.94931,  41.1994,1.10000,0.90000,1.10000,0.90000
   539,'LPU-EBL     ',  33.0000,1,  21,  51,  10,0.96470,  41.9853,1.10000,0.90000,1.10000,0.90000
   540,'HERC33_02   ',  33.0000,1,  21,  52,  10,1.00696,  32.7154,1.10000,0.90000,1.10000,0.90000
   541,'PEM33_03    ',  33.0000,1,  21,  51,  10,1.01031,  30.5474,1.10000,0.90000,1.10000,0.90000
   542,'PM33_02     ',  33.0000,1,  21,  51,  10,1.01088,  25.7419,1.10000,0.90000,1.10000,0.90000
   544,'DIAD33_02   ',  33.0000,1,  21,  51,  10,0.98071,  34.3371,1.10000,0.90000,1.10000,0.90000
   545,'ESP.TER1    ',  33.0000,1,  21,  52,   1,1.00397,  21.5034,1.10000,0.90000,1.10000,0.90000
   546,'ESP.TER2    ',  33.0000,1,  21,  52,   1,1.06782,  20.9521,1.10000,0.90000,1.10000,0.90000
   547,'RGALLEGO    ',  33.0000,4,  21,  52,   1,1.00000,   0.0000,1.10000,0.90000,1.10000,0.90000
   548,'RGA.TER1    ',  13.2000,4,  21,  52,   1,1.00000,   0.0000,1.10000,0.90000,1.10000,0.90000
...
0 / END OF BUS DATA, BEGIN LOAD DATA
@!   I,'ID',STAT,AREA,ZONE,      PL,        QL,        IP,        IQ,        YP,        YQ, OWNER,SCALE,INTRPT,  DGENP,     DGENQ, DGENF
    85,'1 ',   1,  18,  50,    59.728,     0.000,     0.000,     0.000,     0.000,     0.000,  10,    1,  0,     0.000,     0.000,   0
    86,'1 ',   1,  18,  50,    65.700,     0.000,     0.000,     0.000,     0.000,     0.000,  10,    1,  0,     0.000,     0.000,   0
   115,'1 ',   1,  21,  52,     6.545,     2.752,     0.000,     0.000,     0.000,     0.000,   1,    1,  0,     0.000,     0.000,   0
   118,'1 ',   1,  21,  52,    34.748,     6.647,     0.000,     0.000,     0.000,     0.000,   1,    1,  0,     0.000,     0.000,   0
   193,'1 ',   1,  16,  53,   240.000,   131.000,     0.000,     0.000,     0.000,     0.000,   2,    0,  0,     0.000,     0.000,   0
   214,'1 ',   1,  16,  53,    72.000,    40.800,     0.000,     0.000,     0.000,     0.000,   2,    0,  0,     0.000,     0.000,   0
   217,'1 ',   1,  16,  53,   102.000,    60.300,     0.000,     0.000,     0.000,     0.000,   2,    0,  0,     0.000,     0.000,   0
   222,'1 ',   0,  16,  53,    72.000,    40.800,     0.000,     0.000,     0.000,     0.000,   2,    0,  0,     0.000,     0.000,   0
   227,'1 ',   1,  16,  53,    26.000,    12.600,     0.000,     0.000,     0.000,     0.000,   3,    0,  0,     0.000,     0.000,   0
   230,'1 ',   1,  21,  52,    31.976,    11.270,     0.000,     0.000,     0.000,     0.000,   1,    1,  0,     0.000,     0.000,   0
   242,'1 ',   0,  21,  52,     5.458,     2.797,     0.000,     0.000,     0.000,     0.000,   1,    1,  0,     0.000,     0.000,   0
   242,'2 ',   0,  21,  52,    12.621,     5.964,     0.000,     0.000,     0.000,     0.000,   1,    1,  0,     0.000,     0.000,   0
   242,'3 ',   1,  21,  52,    13.590,     6.579,     0.000,     0.000,     0.000,     0.000,   1,    1,  0,     0.000,     0.000,   0
   243,'1 ',   1,  21,  52,    11.981,     2.674,     0.000,     0.000,     0.000,     0.000,   1,    1,  0,     0.000,     0.000,   0
   244,'1 ',   1,  21,  52,    26.779,    12.320,     0.000,     0.000,     0.000,     0.000,   1,    1,  0,     0.000,     0.000,   0
   250,'1 ',   1,  21,  52,     0.468,     0.196,     0.000,     0.000,     0.000,     0.000,   1,    1,  0,     0.000,     0.000,   0
   250,'2 ',   0,  21,  52,     0.000,     0.000,     0.000,     0.000,     0.000,     0.000,   1,    1,  0,     0.000,     0.000,   0
   259,'1 ',   1,  16,  53,    20.000,    11.000,     0.000,     0.000,     0.000,     0.000,   3,    0,  0,     0.000,     0.000,   0
   265,'1 ',   0,  16,  53,    72.000,    40.800,     0.000,     0.000,     0.000,     0.000,   2,    0,  0,     0.000,     0.000,   0
   268,'1 ',   1,  16,  53,   180.000,   115.300,     0.000,     0.000,     0.000,     0.000,   2,    0,  0,     0.000,     0.000,   0
   269,'1 ',   1,  16,  53,   180.000,   115.300,     0.000,     0.000,     0.000,     0.000,   2,    0,  0,     0.000,     0.000,   0
   282,'1 ',   1,  21,  51,     0.755,     0.718,     0.000,     0.000,     0.000,     0.000,   1,    1,  0,     0.000,     0.000,   0
   300,'1 ',   1,   7,  26,     6.689,     2.644,     0.000,     0.000,     0.000,     0.000,   1,    1,  0,     0.000,     0.000,   0
   310,'1 ',   1,   7,  26,     0.620,     0.220,     0.000,     0.000,     0.000,     0.000,   2,    0,  0,     0.000,     0.000,   0
   315,'1 ',   1,  21,  52,     2.153,     0.718,     0.000,     0.000,     0.000,     0.000,   1,    1,  0,     0.000,     0.000,   0
   315,'2 ',   1,  21,  52,     2.153,     0.718,     0.000,     0.000,     0.000,     0.000,   1,    1,  0,     0.000,     0.000,   0
   316,'1 ',   0,  21,  52,     4.833,     1.450,     0.000,     0.000,     0.000,     0.000,   1,    1,  0,     0.000,     0.000,   0
   317,'1 ',   0,  21,  52,    10.000,     3.000,     0.000,     0.000,     0.000,     0.000,   2,    0,  0,     0.000,     0.000,   0
   318,'1 ',   0,  21,  52,     1.878,     0.564,     0.000,     0.000,     0.000,     0.000,   1,    1,  0,     0.000,     0.000,   0
   320,'1 ',   1,   7,  26,     7.459,     2.453,     0.000,     0.000,     0.000,     0.000,   1,    1,  0,     0.000,     0.000,   0
   322,'1 ',   1,   7,  26,     2.278,     0.465,     0.000,     0.000,     0.000,     0.000,   1,    1,  0,     0.000,     0.000,   0
   332,'1 ',   1,   7,  26,    16.083,     7.786,     0.000,     0.000,     0.000,     0.000,   1,    1,  0,     0.000,     0.000,   0
   405,'1 ',   0,  21,  51,    33.888,    11.681,     0.000,     0.000,     0.000,     0.000,   2,    0,  0,     0.000,     0.000,   0
   408,'1 ',   0,  21,  51,     0.000,     0.000,     0.000,     0.000,     0.000,     0.000,   1,    1,  0,     0.000,     0.000,   0
   409,'1 ',   1,  21,  52,     9.155,     3.076,     0.000,     0.000,     0.000,     0.000,   1,    1,  0,     0.000,     0.000,   0
   409,'2 ',   0,  21,  52,    10.279,     3.418,     0.000,     0.000,     0.000,     0.000,   1,    1,  0,     0.000,     0.000,   0
   409,'3 ',   0,  21,  51,     2.207,     0.617,     0.000,     0.000,     0.000,     0.000,   1,    1,  0,     0.000,     0.000,   0
   410,'2 ',   0,  21,  51,    14.099,     6.455,     0.000,     0.000,     0.000,     0.000,   1,    1,  0,     0.000,     0.000,   0
   410,'3 ',   0,  21,  51,     0.134,     0.551,     0.000,     0.000,     0.000,     0.000,   1,    1,  0,     0.000,     0.000,   0
   411,'1 ',   1,  21,  51,    34.000,    22.400,     0.000,     0.000,     0.000,     0.000,   2,    0,  0,     0.000,     0.000,   0
   416,'1 ',   1,  21,  51,     0.595,     0.223,     0.000,     0.000,     0.000,     0.000,   1,    1,  0,     0.000,     0.000,   0
   418,'1 ',   1,  21,  51,    16.300,     7.000,     0.000,     0.000,     0.000,     0.000,   1,    0,  0,     0.000,     0.000,   0
   420,'1 ',   1,  21,  51,    14.202,     6.899,     0.000,     0.000,     0.000,     0.000,   1,    1,  0,     0.000,     0.000,   0
   420,'2 ',   1,  21,  51,    11.468,     5.571,     0.000,     0.000,     0.000,     0.000,   1,    1,  0,     0.000,     0.000,   0
   420,'3 ',   0,  21,  51,     4.900,     2.000,     0.000,     0.000,     0.000,     0.000,   1,    1,  0,     0.000,     0.000,   0
   422,'1 ',   1,  21,  51,    16.580,     4.447,     0.000,     0.000,     0.000,     0.000,   1,    1,  0,     0.000,     0.000,   0
   440,'1 ',   1,  21,  51,     8.116,     4.689,     0.000,     0.000,     0.000,     0.000,   1,    1,  0,     0.000,     0.000,   0
   440,'2 ',   0,  21,  51,    12.500,     4.000,     0.000,     0.000,     0.000,     0.000,   1,    1,  0,     0.000,     0.000,   0
   440,'3 ',   0,  21,  51,    14.988,     4.265,     0.000,     0.000,     0.000,     0.000,   1,    1,  0,     0.000,     0.000,   0
   441,'1 ',   1,  21,  53,     5.439,     2.349,     0.000,     0.000,     0.000,     0.000,   1,    1,  0,     0.000,     0.000,   0
   442,'1 ',   1,  21,  51,    10.364,     7.132,     0.000,     0.000,     0.000,     0.000,   1,    1,  0,     0.000,     0.000,   0
   442,'2 ',   0,  21,  51,     5.571,     2.551,     0.000,     0.000,     0.000,     0.000,   1,    1,  0,     0.000,     0.000,   0
   442,'3 ',   0,  21,  51,     2.500,     1.428,     0.000,     0.000,     0.000,     0.000,   1,    1,  0,     0.000,     0.000,   0
   444,'1 ',   1,  21,  51,    15.149,     3.422,     0.000,     0.000,     0.000,     0.000,   1,    1,  0,     0.000,     0.000,   0
   444,'2 ',   0,  21,  51,    12.166,     5.570,     0.000,     0.000,     0.000,     0.000,   1,    1,  0,     0.000,     0.000,   0
   444,'3 ',   0,  21,  51,     3.500,     0.658,     0.000,     0.000,     0.000,     0.000,   1,    1,  0,     0.000,     0.000,   0
   445,'1 ',   1,  21,  51,     3.006,     0.888,     0.000,     0.000,     0.000,     0.000,   1,    1,  0,     0.000,     0.000,   0
   445,'2 ',   0,  21,  51,     9.096,     4.165,     0.000,     0.000,     0.000,     0.000,   1,    1,  0,     0.000,     0.000,   0
   445,'3 ',   0,  21,  51,     3.500,     0.000,     0.000,     0.000,     0.000,     0.000,   1,    1,  0,     0.000,     0.000,   0
   446,'1 ',   1,  21,  53,    20.698,    11.399,     0.000,     0.000,     0.000,     0.000,   1,    1,  0,     0.000,     0.000,   0
   447,'1 ',   0,  21,  52,    23.200,    11.800,     0.000,     0.000,     0.000,     0.000,   1,    1,  0,     0.000,     0.000,   0
   447,'2 ',   0,  21,  52,    27.288,    12.494,     0.000,     0.000,     0.000,     0.000,   1,    1,  0,     0.000,     0.000,   0
   447,'3 ',   0,  21,  52,     3.000,     1.342,     0.000,     0.000,     0.000,     0.000,   1,    1,  0,     0.000,     0.000,   0
   448,'1 ',   1,  21,  53,    34.265,    19.693,     0.000,     0.000,     0.000,     0.000,   1,    1,  0,     0.000,     0.000,   0
   448,'2 ',   0,  21,  53,    26.500,    11.661,     0.000,     0.000,     0.000,     0.000,   1,    1,  0,     0.000,     0.000,   0
   448,'3 ',   0,  21,  53,    10.299,     5.199,     0.000,     0.000,     0.000,     0.000,   1,    1,  0,     0.000,     0.000,   0
   450,'1 ',   0,  21,  51,    30.100,    15.400,     0.000,     0.000,     0.000,     0.000,   1,    1,  0,     0.000,     0.000,   0
   450,'2 ',   0,  21,  51,     0.000,     0.000,     0.000,     0.000,     0.000,     0.000,   1,    1,  0,     0.000,     0.000,   0
   450,'3 ',   0,  21,  51,     0.000,     0.000,     0.000,     0.000,     0.000,     0.000,   1,    1,  0,     0.000,     0.000,   0
   450,'4 ',   1,  21,  52,    48.092,    13.271,     0.000,     0.000,     0.000,     0.000,   1,    1,  0,     0.000,     0.000,   0
   451,'1 ',   1,  21,  51,     2.405,     0.240,     0.000,     0.000,     0.000,     0.000,   1,    1,  0,     0.000,     0.000,   0
   454,'1 ',   1,  21,  52,    15.802,     5.994,     0.000,     0.000,     0.000,     0.000,   1,    1,  0,     0.000,     0.000,   0
   456,'1 ',   1,  21,  51,    21.521,     8.775,     0.000,     0.000,     0.000,     0.000,   1,    1,  0,     0.000,     0.000,   0
   457,'1 ',   1,  21,  52,    16.500,     4.500,     0.000,     0.000,     0.000,     0.000,   2,    0,  0,     0.000,     0.000,   0
   459,'2 ',   0,  21,  53,     5.276,     1.803,     0.000,     0.000,     0.000,     0.000,   1,    1,  0,     0.000,     0.000,   0
   459,'3 ',   0,  21,  53,     7.732,     3.575,     0.000,     0.000,     0.000,     0.000,   1,    1,  0,     0.000,     0.000,   0
   460,'1 ',   1,  21,  42,    27.398,    11.286,     0.000,     0.000,     0.000,     0.000,   1,    1,  0,     0.000,     0.000,   0
   462,'1 ',   0,  21,  53,    27.630,    11.790,     0.000,     0.000,     0.000,     0.000,   1,    1,  0,     0.000,     0.000,   0
   463,'1 ',   1,  21,  53,     9.518,     7.297,     0.000,     0.000,     0.000,     0.000,   1,    1,  0,     0.000,     0.000,   0
   463,'2 ',   0,  21,  53,    15.000,     5.000,     0.000,     0.000,     0.000,     0.000,   1,    1,  0,     0.000,     0.000,   0
   467,'1 ',   1,  21,  53,     7.025,     2.312,     0.000,     0.000,     0.000,     0.000,   1,    1,  0,     0.000,     0.000,   0
   472,'1 ',   1,  21,  53,     0.000,     0.000,     0.000,     0.000,     0.000,     0.000,   1,    1,  0,     0.000,     0.000,   0
   472,'2 ',   0,  21,  53,     0.000,     0.000,     0.000,     0.000,     0.000,     0.000,   1,    1,  0,     0.000,     0.000,   0
   480,'1 ',   1,  21,  53,     5.288,     2.561,     0.000,     0.000,     0.000,     0.000,   1,    1,  0,     0.000,     0.000,   0
   481,'1 ',   0,  21,  52,     4.700,     3.500,     0.000,     0.000,     0.000,     0.000,   1,    1,  0,     0.000,     0.000,   0
   482,'1 ',   1,  21,  52,     6.000,     3.600,     0.000,     0.000,     0.000,     0.000,   2,    0,  0,     0.000,     0.000,   0
   520,'1 ',   1,  21,  51,     9.668,     3.124,     0.000,     0.000,     0.000,     0.000,   1,    1,  0,     0.000,     0.000,   0
   522,'1 ',   1,  21,  51,     8.914,     5.514,     0.000,     0.000,     0.000,     0.000,   1,    1,  0,     0.000,     0.000,   0
   523,'1 ',   1,  21,  52,    11.000,     3.000,     0.000,     0.000,     0.000,     0.000,   3,    0,  0,     0.000,     0.000,   0
   524,'1 ',   1,  21,  51,     2.266,     0.967,     0.000,     0.000,     0.000,     0.000,   1,    1,  0,     0.000,     0.000,   0
   525,'1 ',   1,  21,  52,    11.000,     3.000,     0.000,     0.000,     0.000,     0.000,   3,    0,  0,     0.000,     0.000,   0
   535,'1 ',   1,  21,  51,    19.800,    11.800,     0.000,     0.000,     0.000,     0.000,   2,    0,  0,     0.000,     0.000,   0
   556,'2 ',   1,  21,  52,     4.685,     2.268,     0.000,     0.000,     0.000,     0.000,   1,    1,  0,     0.000,     0.000,   0
   721,'1 ',   1,  21,  52,     9.442,     3.097,     0.000,     0.000,     0.000,     0.000,   1,    1,  0,     0.000,     0.000,   0
  1201,'1 ',   1,   7,  26,     6.022,     2.007,     0.000,     0.000,     0.000,     0.000,   1,    1,  0,     0.000,     0.000,   0
  1205,'1 ',   1,   7,  26,     5.299,     1.686,     0.000,     0.000,     0.000,     0.000,   1,    1,  0,     0.000,     0.000,   0
  1207,'1 ',   1,   7,  27,     8.492,     2.589,     0.000,     0.000,     0.000,     0.000,   1,    1,  0,     0.000,     0.000,   0
  1208,'1 ',   1,   7,  27,     1.905,     0.952,     0.000,     0.000,     0.000,     0.000,   1,    1,  0,     0.000,     0.000,   0
  1209,'1 ',   1,   7,  26,     8.077,     3.107,     0.000,     0.000,     0.000,     0.000,   1,    1,  0,     0.000,     0.000,   0
  1213,'1 ',   1,   7,  26,     8.000,     2.500,     0.000,     0.000,     0.000,     0.000,   2,    0,  0,     0.000,     0.000,   0
  1215,'1 ',   1,   7,  27,     0.866,     0.173,     0.000,     0.000,     0.000,     0.000,   1,    1,  0,     0.000,     0.000,   0
  1216,'1 ',   1,   7,  27,    19.917,     8.487,     0.000,     0.000,     0.000,     0.000,   1,    1,  0,     0.000,     0.000,   0
  1222,'1 ',   1,   7,  27,     8.100,     3.700,     0.000,     0.000,     0.000,     0.000,   1,    0,  0,     0.000,     0.000,   0
  1223,'1 ',   1,   7,  27,    26.700,     9.700,     0.000,     0.000,     0.000,     0.000,   1,    0,  0,     0.000,     0.000,   0
  1228,'1 ',   1,   7,  27,     9.527,     4.453,     0.000,     0.000,     0.000,     0.000,   1,    1,  0,     0.000,     0.000,   0
  1229,'1 ',   1,   7,  26,     2.700,     0.825,     0.000,     0.000,     0.000,     0.000,   1,    1,  0,     0.000,     0.000,   0
  1230,'1 ',   1,   7,  26,     8.478,     3.323,     0.000,     0.000,     0.000,     0.000,   1,    1,  0,     0.000,     0.000,   0
  1231,'2 ',   1,   7,  26,     8.300,     3.600,     0.000,     0.000,     0.000,     0.000,   1,    0,  0,     0.000,     0.000,   0
  1233,'2 ',   1,   7,  26,     5.800,     2.800,     0.000,     0.000,     0.000,     0.000,   1,    0,  0,     0.000,     0.000,   0
  1234,'1 ',   1,   7,  27,    17.190,     5.592,     0.000,     0.000,     0.000,     0.000,   1,    1,  0,     0.000,     0.000,   0
  1235,'1 ',   1,   7,  26,    17.523,     6.095,     0.000,     0.000,     0.000,     0.000,   1,    1,  0,     0.000,     0.000,   0
  1240,'1 ',   1,   7,  27,     4.050,     1.950,     0.000,     0.000,     0.000,     0.000,  10,    1,  0,     0.000,     0.000,   0
  1246,'1 ',   1,   7,  27,     3.107,     1.553,     0.000,     0.000,     0.000,     0.000,   1,    1,  0,     0.000,     0.000,   0
  1248,'1 ',   1,   7,  25,     4.569,     2.947,     0.000,     0.000,     0.000,     0.000,   1,    1,  0,     0.000,     0.000,   0
  1249,'1 ',   0,   7,  26,     9.500,     5.200,     0.000,     0.000,     0.000,     0.000,   1,    1,  0,     0.000,     0.000,   0
  1252,'1 ',   1,   7,  26,    36.110,    10.911,     0.000,     0.000,     0.000,     0.000,   1,    1,  0,     0.000,     0.000,   0
  1254,'1 ',   1,   7,  27,    58.971,    16.973,     0.000,     0.000,     0.000,     0.000,   1,    1,  0,     0.000,     0.000,   0
  1256,'1 ',   1,   7,  25,     6.403,     0.635,     0.000,     0.000,     0.000,     0.000,   1,    1,  0,     0.000,     0.000,   0
  1257,'1 ',   0,   7,  25,     7.890,     4.177,     0.000,     0.000,     0.000,     0.000,   1,    1,  0,     0.000,     0.000,   0
  1261,'1 ',   1,   7,  27,    19.054,     8.285,     0.000,     0.000,     0.000,     0.000,   1,    1,  0,     0.000,     0.000,   0
  1262,'1 ',   1,   7,  27,    14.700,     5.300,     0.000,     0.000,     0.000,     0.000,   1,    0,  0,     0.000,     0.000,   0
  1264,'1 ',   1,   7,  26,    14.129,     5.540,     0.000,     0.000,     0.000,     0.000,   1,    1,  0,     0.000,     0.000,   0
  1266,'1 ',   1,   7,  27,     1.552,     0.608,     0.000,     0.000,     0.000,     0.000,   1,    1,  0,     0.000,     0.000,   0
  1267,'1 ',   1,   7,  27,     8.595,     3.935,     0.000,     0.000,     0.000,     0.000,   1,    1,  0,     0.000,     0.000,   0
  1270,'1 ',   1,   7,  27,     0.433,     0.087,     0.000,     0.000,     0.000,     0.000,   1,    1,  0,     0.000,     0.000,   0
  1271,'1 ',   1,   7,  25,     1.219,     0.381,     0.000,     0.000,     0.000,     0.000,   1,    1,  0,     0.000,     0.000,   0
  1272,'1 ',   1,   7,  26,     4.764,     1.139,     0.000,     0.000,     0.000,     0.000,   1,    1,  0,     0.000,     0.000,   0
  1274,'1 ',   1,   7,  27,    17.398,     4.246,     0.000,     0.000,     0.000,     0.000,   1,    1,  0,     0.000,     0.000,   0
  1275,'1 ',   1,   7,  25,     0.400,     0.100,     0.000,     0.000,     0.000,     0.000,   3,    0,  0,     0.000,     0.000,   0
  1278,'1 ',   1,   7,  27,     8.478,     3.323,     0.000,     0.000,     0.000,     0.000,   1,    1,  0,     0.000,     0.000,   0
  1280,'1 ',   1,   7,  27,     3.000,     1.000,     0.000,     0.000,     0.000,     0.000,   2,    0,  0,     0.000,     0.000,   0
  1283,'1 ',   1,   7,  27,     8.285,     3.107,     0.000,     0.000,     0.000,     0.000,   1,    1,  0,     0.000,     0.000,   0
  1290,'1 ',   1,   7,  26,     2.520,     0.987,     0.000,     0.000,     0.000,     0.000,   1,    1,  0,     0.000,     0.000,   0
  1291,'1 ',   1,   7,  25,    12.550,     4.125,     0.000,     0.000,     0.000,     0.000,   1,    1,  0,     0.000,     0.000,   0
  1292,'1 ',   1,   7,  25,    22.818,     6.141,     0.000,     0.000,     0.000,     0.000,   1,    1,  0,     0.000,     0.000,   0
  1293,'1 ',   1,   7,  25,     8.592,     1.443,     0.000,     0.000,     0.000,     0.000,   1,    1,  0,     0.000,     0.000,   0
  1294,'1 ',   1,   7,  26,    12.100,     6.200,     0.000,     0.000,     0.000,     0.000,   2,    0,  0,     0.000,     0.000,   0
  1295,'1 ',   1,   7,  25,    17.241,     4.998,     0.000,     0.000,     0.000,     0.000,   1,    1,  0,     0.000,     0.000,   0
  1296,'1 ',   1,   7,  26,    18.485,     6.756,     0.000,     0.000,     0.000,     0.000,   1,    1,  0,     0.000,     0.000,   0
  1400,'1 ',   0,   7,  27,    21.000,     6.900,     0.000,     0.000,     0.000,     0.000,   1,    1,  0,     0.000,     0.000,   0
  1400,'S2',   0,   7,  27,     0.084,     0.063,     0.000,     0.000,     0.000,     0.000,   1,    1,  0,     0.000,     0.000,   0
  1500,'1 ',   1,   7,  27,     6.562,     2.573,     0.000,     0.000,     0.000,     0.000,   1,    1,  0,     0.000,     0.000,   0
  1501,'1 ',   1,   7,  27,     6.562,     1.905,     0.000,     0.000,     0.000,     0.000,   1,    1,  0,     0.000,     0.000,   0
  1503,'1 ',   1,   7,  25,     1.413,     0.274,     0.000,     0.000,     0.000,     0.000,   1,    1,  0,     0.000,     0.000,   0
  1504,'1 ',   1,   7,  27,    36.700,    14.700,     0.000,     0.000,     0.000,     0.000,   1,    0,  0,     0.000,     0.000,   0
  1508,'1 ',   1,   7,  25,     7.748,     2.520,     0.000,     0.000,     0.000,     0.000,   1,    1,  0,     0.000,     0.000,   0
  1509,'1 ',   1,   7,  25,    20.994,     4.892,     0.000,     0.000,     0.000,     0.000,   1,    1,  0,     0.000,     0.000,   0
  1510,'1 ',   1,   7,  25,     7.949,     1.834,     0.000,     0.000,     0.000,     0.000,   1,    1,  0,     0.000,     0.000,   0
  1511,'1 ',   1,   7,  27,     2.800,     1.000,     0.000,     0.000,     0.000,     0.000,   1,    1,  0,     0.000,     0.000,   0
  1514,'1 ',   1,   7,  26,    22.000,     6.333,     0.000,     0.000,     0.000,     0.000,   2,    0,  0,     0.000,     0.000,   0
  1515,'1 ',   1,   7,  27,     2.800,     1.000,     0.000,     0.000,     0.000,     0.000,   1,    1,  0,     0.000,     0.000,   0
  1530,'2 ',   0,   7,  27,    29.000,     9.500,     0.000,     0.000,     0.000,     0.000,   1,    1,  0,     0.000,     0.000,   0
  1540,'1 ',   1,   7,  27,     6.420,     2.854,     0.000,     0.000,     0.000,     0.000,  10,    1,  0,     0.000,     0.000,   0
  1546,'1 ',   1,   7,  27,     2.650,     0.815,     0.000,     0.000,     0.000,     0.000,  10,    1,  0,     0.000,     0.000,   0
  1561,'1 ',   0,   7,  26,     0.000,     0.000,     0.000,     0.000,     0.000,     0.000,   1,    1,  0,     0.000,     0.000,   0
  1563,'1 ',   1,   7,  27,    10.045,     4.039,     0.000,     0.000,     0.000,     0.000,   1,    1,  0,     0.000,     0.000,   0
  1566,'1 ',   1,   7,  26,     4.118,     1.350,     0.000,     0.000,     0.000,     0.000,   1,    1,  0,     0.000,     0.000,   0
  1568,'1 ',   1,   7,  26,     1.490,     0.583,     0.000,     0.000,     0.000,     0.000,   1,    1,  0,     0.000,     0.000,   0
  1570,'1 ',   1,   7,  26,     2.698,     1.058,     0.000,     0.000,     0.000,     0.000,   1,    1,  0,     0.000,     0.000,   0
  1572,'1 ',   1,   7,  26,     1.395,     0.548,     0.000,     0.000,     0.000,     0.000,   1,    1,  0,     0.000,     0.000,   0
  1574,'1 ',   1,   7,  26,    50.329,    12.220,     0.000,     0.000,     0.000,     0.000,   1,    1,  0,     0.000,     0.000,   0
  1581,'1 ',   1,   7,  26,     7.126,     2.325,     0.000,     0.000,     0.000,     0.000,   1,    1,  0,     0.000,     0.000,   0
  1606,'1 ',   1,   7,  27,    12.000,     6.000,     0.000,     0.000,     0.000,     0.000,   3,    0,  0,     0.000,     0.000,   0
  1610,'1 ',   1,   7,  25,     2.580,     0.840,     0.000,     0.000,     0.000,     0.000,   1,    1,  0,     0.000,     0.000,   0
  1620,'1 ',   1,   7,  27,    42.297,     8.833,     0.000,     0.000,     0.000,     0.000,   1,    1,  0,     0.000,     0.000,   0
  1644,'1 ',   1,   7,  27,    15.100,     6.900,     0.000,     0.000,     0.000,     0.000,   2,    0,  0,     0.000,     0.000,   0
  1647,'1 ',   1,   7,  27,    15.000,     5.000,     0.000,     0.000,     0.000,     0.000,   2,    0,  0,     0.000,     0.000,   0
  1818,'1 ',   1,   7,  27,    14.000,     6.000,     0.000,     0.000,     0.000,     0.000,   2,    0,  0,     0.000,     0.000,   0
  1823,'1 ',   1,   7,   2,     3.318,     1.091,     0.000,     0.000,     0.000,     0.000,   1,    1,  0,     0.000,     0.000,   0
  1840,'1 ',   1,   7,  27,     4.243,     0.994,     0.000,     0.000,     0.000,     0.000,   1,    1,  0,     0.000,     0.000,   0
  1841,'1 ',   1,   7,  27,     1.818,     0.375,     0.000,     0.000,     0.000,     0.000,   1,    1,  0,     0.000,     0.000,   0
  1850,'1 ',   1,   7,  26,    10.305,     3.738,     0.000,     0.000,     0.000,     0.000,   1,    1,  0,     0.000,     0.000,   0
  1851,'1 ',   0,   7,  26,     0.000,     0.000,     0.000,     0.000,     0.000,     0.000,   1,    1,  0,     0.000,     0.000,   0
  2200,'1 ',   1,   5,  56,    54.001,     7.960,     0.000,     0.000,     0.000,     0.000,   1,    1,  0,     0.000,     0.000,   0
  2204,'1 ',   1,   5,  21,    35.824,    14.197,     0.000,     0.000,     0.000,     0.000,   1,    1,  0,     0.000,     0.000,   0
  2210,'1 ',   1,   5,  22,    28.570,     7.977,     0.000,     0.000,     0.000,     0.000,   1,    1,  0,     0.000,     0.000,   0
  2212,'1 ',   1,   5,  22,    18.575,     8.094,     0.000,     0.000,     0.000,     0.000,   1,    1,  0,     0.000,     0.000,   0
  2215,'1 ',   1,   5,  21,    53.000,    28.000,     0.000,     0.000,     0.000,     0.000,   2,    0,  0,     0.000,     0.000,   0
  2216,'1 ',   1,   5,  21,    14.560,     7.332,     0.000,     0.000,     0.000,     0.000,   1,    1,  0,     0.000,     0.000,   0
  2220,'1 ',   1,   5,  24,    18.000,     7.000,     0.000,     0.000,     0.000,     0.000,   2,    0,  0,     0.000,     0.000,   0
  2221,'1 ',   1,   5,  23,    45.000,    15.000,     0.000,     0.000,     0.000,     0.000,   2,    0,  0,     0.000,     0.000,   0
  2222,'1 ',   1,   5,  24,     5.838,     2.305,     0.000,     0.000,     0.000,     0.000,   1,    1,  0,     0.000,     0.000,   0
  2224,'1 ',   1,   5,  23,    52.542,    21.760,     0.000,     0.000,     0.000,     0.000,   1,    1,  0,     0.000,     0.000,   0
  2225,'1 ',   1,   5,  23,    12.500,     4.100,     0.000,     0.000,     0.000,     0.000,   2,    0,  0,     0.000,     0.000,   0
  2226,'1 ',   1,   5,  21,    30.384,     7.298,     0.000,     0.000,     0.000,     0.000,   1,    1,  0,     0.000,     0.000,   0
  2227,'1 ',   1,   5,  21,    15.639,     6.892,     0.000,     0.000,     0.000,     0.000,   1,    1,  0,     0.000,     0.000,   0
  2229,'1 ',   1,   5,  21,    38.079,    14.330,     0.000,     0.000,     0.000,     0.000,   1,    1,  0,     0.000,     0.000,   0
  2230,'1 ',   1,   5,  21,    37.442,    13.573,     0.000,     0.000,     0.000,     0.000,   1,    1,  0,     0.000,     0.000,   0
  2232,'1 ',   1,   5,  24,     7.563,     2.653,     0.000,     0.000,     0.000,     0.000,   1,    1,  0,     0.000,     0.000,   0
  2233,'1 ',   1,   5,  54,    36.089,    14.064,     0.000,     0.000,     0.000,     0.000,   1,    1,  0,     0.000,     0.000,   0
  2234,'1 ',   1,   5,  24,    20.034,     8.757,     0.000,     0.000,     0.000,     0.000,   1,    1,  0,     0.000,     0.000,   0
  2235,'1 ',   1,   5,  24,     8.429,     3.552,     0.000,     0.000,     0.000,     0.000,   1,    1,  0,     0.000,     0.000,   0
  2236,'1 ',   1,   5,  22,    17.116,     3.317,     0.000,     0.000,     0.000,     0.000,   1,    1,  0,     0.000,     0.000,   0
  2238,'1 ',   1,   5,  24,    11.145,     2.123,     0.000,     0.000,     0.000,     0.000,   1,    1,  0,     0.000,     0.000,   0
  2239,'1 ',   1,   4,  21,     8.606,     2.712,     0.000,     0.000,     0.000,     0.000,   1,    1,  0,     0.000,     0.000,   0
  2240,'1 ',   1,   5,  22,     6.368,     2.653,     0.000,     0.000,     0.000,     0.000,   1,    1,  0,     0.000,     0.000,   0
  2242,'1 ',   1,   5,  56,    21.267,     3.523,     0.000,     0.000,     0.000,     0.000,   1,    1,  0,     0.000,     0.000,   0
  2243,'1 ',   1,   5,  56,    21.267,     3.523,     0.000,     0.000,     0.000,     0.000,   1,    1,  0,     0.000,     0.000,   0
  2244,'1 ',   1,   5,  21,    17.100,     5.223,     0.000,     0.000,     0.000,     0.000,   1,    1,  0,     0.000,     0.000,   0
  2246,'1 ',   1,   5,  21,    18.045,     5.439,     0.000,     0.000,     0.000,     0.000,   1,    1,  0,     0.000,     0.000,   0
...
0 / END OF LOAD DATA, BEGIN FIXED SHUNT DATA
@!   I,'ID',STATUS,  GL,        BL
    85,'1 ',1,     0.000,  1540.000
    86,'1 ',1,     0.000,  2774.000
  1661,'1 ',1,     0.000,     0.000
  1662,'1 ',1,     0.000,     0.000
  1663,'1 ',1,     0.000,     0.000
  1664,'1 ',1,     0.000,     0.000
  1665,'1 ',1,     0.000,     0.000
  1666,'1 ',1,     0.000,     0.000
  1691,'1 ',1,     0.000,     0.000
  1692,'1 ',1,     0.000,     0.000
  3213,'1 ',1,     0.000,    24.000
  3224,'1 ',1,     0.000,    12.000
  3229,'1 ',1,     0.000,    12.000
  3232,'1 ',1,     0.000,    12.000
  3260,'1 ',1,     0.000,    12.000
  3293,'1 ',1,     0.000,    12.000
  3294,'1 ',1,     0.000,    14.400
  3294,'3 ',1,    48.000,     0.000
  3334,'1 ',1,     0.000,     6.000
  3336,'1 ',1,     0.000,     6.000
  3338,'1 ',1,     0.000,    24.000
  3350,'1 ',1,     0.000,    12.000
  3360,'1 ',1,     0.000,    12.000
  3375,'1 ',1,     0.000,    12.000
  3380,'1 ',1,     0.000,    18.000
  3382,'1 ',1,     0.000,    24.000
  3410,'1 ',1,     0.000,     9.600
  3448,'1 ',1,     0.000,    12.000
  3453,'1 ',1,     0.000,    12.000
  3466,'1 ',1,     0.000,    12.000
  3467,'1 ',1,     0.000,    12.000
  3471,'1 ',1,     0.000,    12.000
  3478,'1 ',1,     0.000,    12.000
  3726,'1 ',1,     0.000,    12.000
  3741,'1 ',1,     0.000,    18.000
  5200,'1 ',1,     0.000,     4.000
  5210,'1 ',1,     0.000,     6.830
  5214,'1 ',1,     0.000,    12.000
  5215,'1 ',1,     0.000,     3.850
  5224,'1 ',1,     0.000,     7.210
  5228,'1 ',1,     0.000,     3.000
  5230,'1 ',1,     0.000,     4.000
  5231,'1 ',1,     0.000,     3.440
  5239,'1 ',1,     0.000,    20.000
  5244,'1 ',1,     0.000,    24.000
  5274,'1 ',1,     0.000,     1.000
  5284,'1 ',1,     0.000,     3.010
  5288,'1 ',1,     0.000,     3.000
  5291,'1 ',1,     0.000,     2.000
  5293,'1 ',1,     0.000,     4.500
  5295,'1 ',1,     0.000,     2.000
  5298,'1 ',1,     0.000,     3.710
  5510,'1 ',1,     0.000,    17.670
  5520,'1 ',1,     0.000,    10.500
  5521,'1 ',1,     0.000,     1.500
  5524,'1 ',1,     0.000,     3.000
  5528,'1 ',1,     0.000,     5.750
  5529,'1 ',0,     0.000,     2.380
  5531,'1 ',1,     0.000,     1.500
  5542,'1 ',1,     0.000,     7.500
  5543,'1 ',1,     0.000,     6.000
  5545,'1 ',1,     0.000,     3.250
  5551,'1 ',1,     0.000,     4.500
  5552,'1 ',1,     0.000,     4.600
  5570,'1 ',1,     0.000,     8.100
  5582,'1 ',1,     0.000,     2.000
  5602,'1 ',1,     0.000,     3.000
  5620,'1 ',1,     0.000,     5.000
  5650,'1 ',1,     0.000,    12.460
  5806,'1 ',1,     0.000,     6.000
  5812,'1 ',1,     0.000,    27.700
  5830,'1 ',1,     0.000,     6.000
  5831,'1 ',1,     0.000,     4.000
  5872,'1 ',1,     0.000,     3.000
  8583,'1 ',1,     0.000,     7.800
 41002,'1 ',0,     0.000,    80.000
 41002,'2 ',0,     0.000,    80.000
 41017,'1 ',1,     0.000,     0.000
 41018,'1 ',1,     0.000,     0.000
 41052,'1 ',1,     0.000,     0.000
 41053,'1 ',1,     0.000,     0.000
 41066,'1 ',1,     0.000,     0.000
 41236,'1 ',1,     0.000,     0.000
 41238,'1 ',1,     0.000,     0.000
 41247,'1 ',1,     0.000,     0.000
 41250,'1 ',1,     0.000,     0.000
 41251,'1 ',1,     0.000,     0.000
 41258,'1 ',1,     0.000,     0.000
 41401,'1 ',1,     0.000,     7.500
 41402,'1 ',1,     0.000,    12.000
 41403,'1 ',1,     0.000,    24.000
 41404,'1 ',1,     0.000,    12.000
 41405,'1 ',1,     0.000,    24.000
 41406,'1 ',1,     0.000,     6.000
 41407,'1 ',1,     0.000,     6.000
 41409,'1 ',1,     0.000,     0.000
 41410,'1 ',1,     0.000,    12.000
 41411,'1 ',1,     0.000,    24.000
 41412,'1 ',1,     0.000,    12.000
 41414,'1 ',1,     0.000,     3.000
 41415,'1 ',1,     0.000,    12.000
 41416,'1 ',1,     0.000,    12.000
 41419,'1 ',1,     0.000,    12.000
 41430,'1 ',1,     0.000,    18.000
 41431,'1 ',1,     0.000,    18.000
 41432,'1 ',1,     0.000,    18.000
 41433,'1 ',1,     0.000,    12.000
 41434,'1 ',1,     0.000,    24.000
 41435,'1 ',1,     0.000,     6.000
 41437,'1 ',1,     0.000,     2.400
 41438,'1 ',1,     0.000,     0.000
 41439,'1 ',1,     0.000,    18.000
 41440,'1 ',1,     0.000,    12.000
 41441,'1 ',1,     0.000,     0.000
 41442,'1 ',1,     0.000,     0.000
 41443,'1 ',1,     0.000,     9.000
 41444,'1 ',1,     0.000,    12.000
 41445,'1 ',1,     0.000,    12.000
 41448,'1 ',1,     0.000,     0.000
 41449,'1 ',1,     0.000,     0.000
 41454,'1 ',1,     0.000,    12.000
 41455,'1 ',1,     0.000,    18.000
 41457,'1 ',1,     0.000,    18.000
 41459,'1 ',1,     0.000,    24.000
 41460,'1 ',1,     0.000,     0.000
 41461,'1 ',1,     0.000,    12.000
 41462,'1 ',1,     0.000,     0.000
 41463,'1 ',1,     0.000,    12.000
 41465,'1 ',1,     0.000,     0.000
 41504,'1 ',1,     0.000,     0.000
 41506,'1 ',1,     0.000,     6.000
 41510,'1 ',1,     0.000,    12.000
 41512,'1 ',1,     0.000,    12.000
 41515,'1 ',1,     0.000,    12.000
 41516,'1 ',1,     0.000,    12.000
 41519,'1 ',1,     0.000,    12.000
 41531,'1 ',1,     0.000,     6.000
 41535,'1 ',1,     0.000,     0.000
 41537,'1 ',1,     0.000,     0.000
 41540,'1 ',1,     0.000,     0.000
 41545,'1 ',1,     0.000,     0.000
 41560,'1 ',1,     0.000,     0.000
 41610,'1 ',1,     0.000,     0.000
 41616,'1 ',1,     0.000,     0.000
 41810,'3 ',0,     0.000,    50.000
 41810,'4 ',0,     0.000,    50.000
 42030,'1 ',1,     0.000,     0.000
 42031,'1 ',1,     0.000,     0.000
 42032,'1 ',1,     0.000,     0.000
 42033,'1 ',1,     0.000,     0.000
 42034,'1 ',1,     0.000,     0.000
 42220,'1 ',1,     0.000,     0.000
 42221,'1 ',1,     0.000,     0.000
 42222,'1 ',1,     0.000,     0.000
 42401,'1 ',1,     0.000,     6.000
 42402,'1 ',1,     0.000,     0.000
 42403,'1 ',1,     0.000,     9.000
 42404,'1 ',1,     0.000,     0.000
 42405,'1 ',1,     0.000,     6.000
 42406,'1 ',1,     0.000,     0.000
 42407,'1 ',1,     0.000,    12.000
 42408,'1 ',1,     0.000,     6.000
 42409,'1 ',1,     0.000,     6.000
 42412,'1 ',1,     0.000,     6.000
 42413,'1 ',1,     0.000,     6.000
 42414,'1 ',1,     0.000,     6.000
 42415,'1 ',1,     0.000,    24.000
 42416,'1 ',1,     0.000,    12.000
 42417,'1 ',1,     0.000,     6.000
 42418,'1 ',1,     0.000,     6.000
 42419,'1 ',1,     0.000,     3.000
 42424,'1 ',1,     0.000,     0.000
 42425,'1 ',1,     0.000,     0.000
 42426,'1 ',1,     0.000,    12.000
 42427,'1 ',1,     0.000,     6.000
 42428,'1 ',1,     0.000,    24.000
 42501,'1 ',1,     0.000,     6.000
 42507,'1 ',1,     0.000,     0.000
 42512,'1 ',1,     0.000,     3.000
 42516,'1 ',1,     0.000,     0.000
 42517,'1 ',1,     0.000,     6.000
 42601,'1 ',1,     0.000,     0.000
 43018,'1 ',1,     0.000,     0.000
 43103,'1 ',1,     0.000,   -20.000
 43401,'1 ',1,     0.000,     0.000
 43402,'1 ',1,     0.000,     0.000
 43403,'1 ',1,     0.000,     3.000
 43404,'1 ',1,     0.000,    12.000
 43405,'1 ',1,     0.000,     3.000
 43406,'1 ',1,     0.000,     6.000
 43407,'1 ',1,     0.000,     6.000
 43408,'1 ',1,     0.000,     0.000
 43409,'1 ',1,     0.000,     0.000
 43412,'1 ',1,     0.000,    12.000
 43413,'1 ',1,     0.000,     3.000
 43414,'1 ',1,     0.000,    12.000
 43415,'1 ',1,     0.000,     6.000
 43417,'1 ',1,     0.000,     0.000
 43418,'1 ',1,     0.000,     0.000
 43514,'1 ',1,     0.000,    12.000
...
0 / END OF FIXED SHUNT DATA, BEGIN GENERATOR DATA
@!   I,'ID',      PG,        QG,        QT,        QB,     VS,    IREG,     MBASE,     ZR,         ZX,         RT,         XT,     GTAP,STAT, RMPCT,      PT,        PB,    O1,    F1,  O2,    F2,  O3,    F3,  O4,    F4,WMOD, WPF,NREG
    30,'1 ',   906.837,   240.911,  9999.000, -9999.000,1.05000,    30,  1000.000, 1.26500E-2, 1.44500E-1, 0.00000E+0, 0.00000E+0,1.00000,0,  100.0,  1100.000, -1100.000,  10,1.0000
    87,'1 ', -2311.354, -2011.919,  9999.000, -9999.000,1.04000,    87, 18000.000, 0.00000E+0, 1.00000E+0, 0.00000E+0, 0.00000E+0,1.00000,1,  100.0,  9999.000, -9999.000,   1,1.0000
   102,'1 ',   110.000,   -22.457,    45.000,   -47.000,1.00000,   102,   140.000, 0.00000E+0, 2.20000E-1, 0.00000E+0, 0.00000E+0,1.00000,1,  100.0,   133.000,     0.000,   6,1.0000
   104,'1 ',   110.000,   -22.457,    45.000,   -47.000,1.00000,   104,   140.000, 0.00000E+0, 2.20000E-1, 0.00000E+0, 0.00000E+0,1.00000,1,  100.0,   133.000,     0.000,   6,1.0000
   106,'1 ',   110.000,   -22.457,    45.000,   -47.000,1.00000,   106,   140.000, 0.00000E+0, 2.20000E-1, 0.00000E+0, 0.00000E+0,1.00000,1,  100.0,   133.000,     0.000,   6,1.0000
   108,'1 ',   100.000,    -3.874,    45.000,   -47.000,1.00000,   108,   140.000, 0.00000E+0, 2.20000E-1, 0.00000E+0, 0.00000E+0,1.00000,0,  100.0,   133.000,     0.000,   6,1.0000
   190,'9 ',   150.000,    55.050,    99.600,   -40.800,1.00000,   259,   184.500, 0.00000E+0, 1.88000E-1, 0.00000E+0, 0.00000E+0,1.00000,1,  100.0,   165.000, -9999.000,   8,1.0000
   191,'10',   150.000,    55.050,    99.600,   -40.800,1.00000,   259,   184.500, 0.00000E+0, 1.88000E-1, 0.00000E+0, 0.00000E+0,1.00000,1,  100.0,   165.000, -9999.000,   8,1.0000
   192,'11',   140.000,    55.050,   114.000,   -80.000,1.00000,   259,   190.800, 0.00000E+0, 1.88000E-1, 0.00000E+0, 0.00000E+0,1.00000,1,  100.0,   140.000,    80.000,   8,1.0000
   201,'1 ',    18.000,    15.000,    15.000,   -14.000,1.05000,   201,    39.500, 0.00000E+0, 1.30000E-1, 0.00000E+0, 0.00000E+0,1.00000,1,  100.0,    20.000,     0.000,   4,1.0000
   202,'2 ',    19.999,    16.889,    20.000,   -14.000,1.05000,   202,    39.500, 0.00000E+0, 1.30000E-1, 0.00000E+0, 0.00000E+0,1.00000,1,  100.0,  9999.000,     0.000,   4,1.0000
   203,'3 ',    19.999,    16.889,    20.000,   -14.000,1.05000,   203,    39.500, 0.00000E+0, 1.30000E-1, 0.00000E+0, 0.00000E+0,1.00000,1,  100.0,  9999.000,     0.000,   4,1.0000
   204,'4 ',    20.000,    16.889,    20.000,   -14.000,1.05000,   204,    39.500, 0.00000E+0, 1.30000E-1, 0.00000E+0, 0.00000E+0,1.00000,1,  100.0,    20.000,     0.000,   4,1.0000
   205,'5 ',    38.000,    19.191,    22.000,    -6.000,1.05000,   205,    45.400, 0.00000E+0, 1.66000E-1, 0.00000E+0, 0.00000E+0,1.00000,1,  100.0,    38.200,     0.000,   4,1.0000
   206,'6 ',    32.000,    16.319,    20.000,    -6.000,1.03000,   206,    45.400, 0.00000E+0, 1.66000E-1, 0.00000E+0, 0.00000E+0,1.00000,1,  100.0,    38.200,     0.000,   4,1.0000
   207,'7 ',    38.000,    -5.797,    20.900,   -13.200,1.00000,   216,    48.240, 0.00000E+0, 1.69000E-1, 0.00000E+0, 0.00000E+0,1.00000,0,  100.0,    41.000,     0.000,   8,1.0000
   208,'8 ',    38.000,    -5.797,    28.181,   -21.273,1.05000,   216,    48.200, 0.00000E+0, 1.69000E-1, 0.00000E+0, 0.00000E+0,1.00000,0,  100.0,    49.000,     0.000,   8,1.0000
   209,'9 ',    32.000,    -5.797,    30.000,   -17.656,1.00000,   216,    50.350, 0.00000E+0, 1.83000E-1, 0.00000E+0, 0.00000E+0,1.00000,0,  100.0,    50.350,     0.000,   8,1.0000
   219,'21',    18.000,     7.511,    15.000,   -10.000,1.05000,   219,    31.500, 0.00000E+0, 1.50000E-1, 0.00000E+0, 0.00000E+0,1.00000,0,  100.0,    21.000, -9999.000,   4,1.0000
   219,'22',    18.000,     7.511,    15.000,   -10.000,1.05000,   219,    31.500, 0.00000E+0, 1.50000E-1, 0.00000E+0, 0.00000E+0,1.00000,0,  100.0,    21.000,     0.000,   4,1.0000
   242,'1 ',    -0.440,    -0.225,    -0.225,    -0.225,1.00000,   242,     0.543, 0.00000E+0, 1.57330E-1, 0.00000E+0, 0.00000E+0,1.00000,0,  100.0,  9999.000, -9999.000,   1,1.0000
   242,'2 ',    -0.659,    -0.338,    -0.338,    -0.338,1.00000,   242,     0.815, 0.00000E+0, 1.57330E-1, 0.00000E+0, 0.00000E+0,1.00000,0,  100.0,  9999.000, -9999.000,   1,1.0000
...